
 OpenBabel10231416573D

  9  8  0  0  0  0  0  0  0  0999 V2000
    1.0752   -0.0248   -0.0652 C   0  0  0  0  0  0  0  0  0  0  0  0
    2.5898   -0.0289   -0.0690 C   0  0  0  0  0  0  0  0  0  0  0  0
    3.0707   -0.4779   -1.3277 O   0  0  0  0  0  0  0  0  0  0  0  0
    0.6888   -0.6870    0.7121 H   0  0  0  0  0  0  0  0  0  0  0  0
    0.6847    0.9799    0.1037 H   0  0  0  0  0  0  0  0  0  0  0  0
    0.6899   -0.4779   -0.8617 H   0  0  0  0  0  0  0  0  0  0  0  0
    2.9824   -0.6870    0.7121 H   0  0  0  0  0  0  0  0  0  0  0  0
    2.9757    0.9799    0.1037 H   0  0  0  0  0  0  0  0  0  0  0  0
    4.0000   -0.4779   -1.3277 H   0  0  0  0  0  0  0  0  0  0  0  0
  1  2  1  0  0  0  0
  1  4  1  0  0  0  0
  1  5  1  0  0  0  0
  1  6  1  0  0  0  0
  2  3  1  0  0  0  0
  2  7  1  0  0  0  0
  2  8  1  0  0  0  0
  3  9  1  0  0  0  0
M  END
